[Format]      =  4.0
[Frequency]   =  0
[Precision]   =  1e-008
[MinAngle]    =  30
[Depth]       =  1
[LengthUnits] =  centimeters
[ProblemType] =  planar
[Coordinates] =  cartesian
[ACSolver]    =  0
[PrevSoln]    =  ""
[Comment]     =  "Add comments here."
[PointProps]   = 0
[BdryProps]   = 1
  <BeginBdry>
    <BdryName> = "Boundary"
    <BdryType> = 0
    <A_0> = 0
    <A_1> = 0
    <A_2> = 0
    <Phi> = 0
    <c0> = 0
    <c0i> = 0
    <c1> = 0
    <c1i> = 0
    <Mu_ssd> = 0
    <Sigma_ssd> = 0
  <EndBdry>
[BlockProps]  = 4
  <BeginBlock>
    <BlockName> = "Air"
    <Mu_x> = 1
    <Mu_y> = 1
    <H_c> = 0
    <H_cAngle> = 0
    <J_re> = 0
    <J_im> = 0
    <Sigma> = 0
    <d_lam> = 0
    <Phi_h> = 0
    <Phi_hx> = 0
    <Phi_hy> = 0
    <LamType> = 0
    <LamFill> = 1
    <NStrands> = 0
    <WireD> = 0
    <BHPoints> = 0
  <EndBlock>
  <BeginBlock>
    <BlockName> = "10 AWG"
    <Mu_x> = 1
    <Mu_y> = 1
    <H_c> = 0
    <H_cAngle> = 0
    <J_re> = 0
    <J_im> = 0
    <Sigma> = 58
    <d_lam> = 0
    <Phi_h> = 0
    <Phi_hx> = 0
    <Phi_hy> = 0
    <LamType> = 3
    <LamFill> = 1
    <NStrands> = 1
    <WireD> = 2.5887801724742099
    <BHPoints> = 0
  <EndBlock>
  <BeginBlock>
    <BlockName> = "M-50"
    <Mu_x> = 1
    <Mu_y> = 1
    <H_c> = 0
    <H_cAngle> = 0
    <J_re> = 0
    <J_im> = 0
    <Sigma> = 5.5099999999999998
    <d_lam> = 0
    <Phi_h> = 0
    <Phi_hx> = 0
    <Phi_hy> = 0
    <LamType> = 0
    <LamFill> = 1
    <NStrands> = 0
    <WireD> = 0
    <BHPoints> = 33
      0	0
      0.17091054334806732	138.36666666666667
      0.17724901538331228	139.80333333333334
      0.20486974193135704	145.68666666666667
      0.21211497278665314	147.19666666666666
      0.25377677260866005	156.58666666666664
      0.27551295107421214	161.50333333333333
      0.28275505384689487	163.17666666666665
      0.32894146039445737	173.57999999999998
      0.4059092888292386	190.41999999999999
      0.42492426092321167	194.37666666666667
      0.77168921241957378	269.93666666666661
      0.85815490321356935	293.0333333333333
      1.2092038476183415	480.52666666666664
      1.3343818209365623	622.15333333333331
      1.3588985394573863	661.98333333333335
      1.5136837627030362	1207.2666666666667
      1.6090881927062419	2006.5666666666668
      1.6441685590258115	2494.9333333333329
      1.6655211159195367	2855.0666666666666
      1.691568870436805	3370.5333333333333
      1.7385756065835569	4649.1333333333332
      1.7957205762704673	6753.9333333333343
      1.8243699271458804	8225.5999999999985
      1.9398413963386592	17725.666666666664
      1.9928982509957003	25224.666666666664
      2.000053000114896	26568
      2.018114303573709	30091.666666666664
      2.0716131221779523	43725
      2.0896200595568115	50043.666666666664
      2.2033484254164013	104603.33333333333
      2.3063251727798812	177690
      2.4898323550981316	321280
  <EndBlock>
  <BeginBlock>
    <BlockName> = "Pure Iron"
    <Mu_x> = 14872
    <Mu_y> = 14872
    <H_c> = 0
    <H_cAngle> = 0
    <J_re> = 0
    <J_im> = 0
    <Sigma> = 10.44
    <d_lam> = 0
    <Phi_h> = 0
    <Phi_hx> = 0
    <Phi_hy> = 0
    <LamType> = 0
    <LamFill> = 1
    <NStrands> = 0
    <WireD> = 0
    <BHPoints> = 21
      0	0
      0.22706499999999999	13.898400000000001
      0.45412999999999998	27.796700000000001
      0.68119499999999999	42.397399999999998
      0.90825999999999996	61.415700000000001
      1.13533	82.382400000000004
      1.36239	144.66900000000001
      1.58935	897.75999999999999
      1.81236	4581.7399999999998
      2.01004	17736.200000000001
      2.1331600000000002	41339.300000000003
      2.1999900000000001	68321.800000000003
      2.2547899999999998	95685.5
      2.2999299999999998	123355
      2.3425099999999999	151083
      2.3787600000000002	178954
      2.4150100000000001	206825
      2.45126	234696
      2.4874999999999998	262568
      2.5237500000000002	290439
      2.5600000000000001	318310
  <EndBlock>
[CircuitProps]  = 1
  <BeginCircuit>
    <CircuitName> = "Coil Circuit"
    <TotalAmps_re> = 500
    <TotalAmps_im> = 0
    <CircuitType> = 1
  <EndCircuit>
[NumPoints] = 28
0	0	0	0
0	20	0	0
20	0	0	0
20	20	0	0
4	16	0	0
4	4	0	0
16	16	0	0
16	4	0	0
16	12	0	0
16	10	0	0
20	10	0	0
20	12	0	0
6	7	0	0
6	13	0	0
4	7	0	0
4	13	0	0
-2	7	0	0
-2	13	0	0
0	7	0	0
0	13	0	0
50	10	0	0
-30	10	0	0
17.800000000000001	9.3000000000000007	0	0
13.1	11.6	0	0
12	12	0	0
12	10	0	0
24	12	0	0
24	10	0	0
[NumSegments] = 27
1	19	-1	0	0	0
0	2	-1	0	0	0
1	3	-1	0	0	0
11	3	-1	0	0	0
11	8	-1	0	0	0
6	8	-1	0	0	0
6	4	-1	0	0	0
4	15	-1	0	0	0
5	7	-1	0	0	0
7	9	-1	0	0	0
9	10	-1	0	0	0
10	2	-1	0	0	0
14	5	-1	0	0	0
15	14	-1	0	0	0
13	15	-1	0	0	0
13	12	-1	0	0	0
12	14	-1	0	0	0
18	0	-1	0	0	0
19	18	-1	0	0	0
16	18	-1	0	0	0
16	17	-1	0	0	0
17	19	-1	0	0	0
24	8	-1	0	0	0
11	26	-1	0	0	0
26	27	-1	0	0	0
27	10	-1	0	0	0
9	25	-1	0	0	0
[NumArcSegments] = 2
21	20	180	1	1	0	0
20	21	180	1	1	0	0
[NumHoles] = 0
[NumBlockLabels] = 5
7.7000000000000002	18.100000000000001	4	-1	0	0	0	1	0
4.7999999999999998	10.6	2	-1	1	0	0	500	0
-1.1000000000000001	10.6	2	-1	1	0	0	500	0
10.9	12.9	1	-1	0	0	0	1	0
22	10.800000000000001	4	-1	0	0	0	1	0
